CHEMBL3353428_5ZTY


 27 29  0  0  0  0  0  0  0  0999 V2000
    6.5894   -4.1188  -50.8939 C   0  0  0  0  0
    7.7820   -4.7118  -51.3144 C   0  0  0  0  0
    8.3917   -2.7439  -52.5102 C   0  0  0  0  0
    7.1979   -2.1206  -52.1016 C   0  0  0  0  0
    6.2980   -2.8136  -51.2920 C   0  0  0  0  0
    6.9277   -0.8217  -52.5094 C   0  0  0  0  0
    7.8311   -0.1290  -53.3213 C   0  0  0  0  0
    9.0231   -0.7834  -53.7162 C   0  0  0  0  0
   10.5102   -2.7302  -53.7364 C   0  0  0  0  0
   10.2804   -3.4563  -55.0530 C   0  0  0  0  0
   11.5645   -4.1123  -55.5256 C   0  0  0  0  0
   12.5157   -3.0691  -56.0876 C   0  0  0  0  0
   13.7995   -3.7277  -56.5567 C   0  0  0  0  0
    7.4915    1.2579  -53.7299 C   0  0  0  0  0
    8.0744    3.3714  -55.0050 C   0  0  0  0  0
    9.3688    4.0534  -55.4674 C   0  0  0  0  0
    9.0811    5.1696  -56.4690 C   0  0  0  0  0
    8.3847    4.6371  -57.7305 C   0  0  0  0  0
    7.5888    3.3476  -57.4944 C   0  0  0  0  0
    6.9864    3.3259  -56.0922 C   0  0  0  0  0
    9.4041    4.4063  -58.8269 C   0  0  0  0  0
    8.6484   -4.0212  -52.1040 N   0  0  0  0  0
    9.2787   -2.0680  -53.3049 N   0  0  0  0  0
    8.3824    2.0248  -54.5467 N   0  0  0  0  0
    9.8591   -0.1866  -54.4504 O   0  0  0  0  0
   13.5569   -4.4826  -57.7048 O   0  0  0  0  0
    6.4033    1.7710  -53.3485 O   0  0  0  0  0
  2 22  1  0  0  0
  3  4  1  0  0  0
  4  6  1  0  0  0
  5  1  1  0  0  0
  7  8  1  0  0  0
  7 14  1  0  0  0
  8 23  1  0  0  0
  9 23  1  0  0  0
  9 10  1  0  0  0
 10 11  1  0  0  0
 11 12  1  0  0  0
 12 13  1  0  0  0
 13 26  1  0  0  0
 14 24  1  0  0  0
 15 24  1  0  0  0
 15 16  1  0  0  0
 16 17  1  0  0  0
 17 18  1  0  0  0
 18 19  1  0  0  0
 18 21  1  0  0  0
 19 20  1  0  0  0
 20 15  1  0  0  0
 23  3  1  0  0  0
  1  2  2  0  0  0
  3 22  2  0  0  0
  4  5  2  0  0  0
  6  7  2  0  0  0
  8 25  2  0  0  0
 14 27  2  0  0  0
M  END
> <rmsd>
0.281650931

$$$$
CHEMBL4079140_5ZTY


 28 32  0  0  0  0  0  0  0  0999 V2000
    7.9557    4.5620  -58.4469 C   0  0  0  0  0
    8.2281    3.1743  -59.0491 C   0  0  0  0  0
    9.6897    3.1041  -59.5216 C   0  0  0  0  0
   10.6395    3.3524  -58.3382 C   0  0  0  0  0
   10.3530    4.7390  -57.7401 C   0  0  0  0  0
    8.8957    4.8113  -57.2565 C   0  0  0  0  0
    8.6614    3.7281  -56.1905 C   0  0  0  0  0
    8.9380    2.3343  -56.7795 C   0  0  0  0  0
    7.9909    2.1031  -57.9732 C   0  0  0  0  0
   10.4005    2.2810  -57.2628 C   0  0  0  0  0
    8.8683   -0.0840  -55.9294 C   0  0  0  0  0
    8.6058   -0.9966  -54.8003 C   0  0  0  0  0
    8.4173   -2.7820  -53.6079 C   0  0  0  0  0
    8.4139   -4.0956  -53.1349 C   0  0  0  0  0
    8.0013   -4.3093  -51.8078 C   0  0  0  0  0
    7.6076   -3.2238  -50.9962 C   0  0  0  0  0
    7.6214   -1.9113  -51.5015 C   0  0  0  0  0
    8.0345   -1.7299  -52.8192 C   0  0  0  0  0
    8.1432   -0.5653  -53.5529 C   0  0  0  0  0
    9.2717   -3.1708  -55.9240 C   0  0  0  0  0
   10.7910   -3.1194  -55.9836 C   0  0  0  0  0
   11.3979   -3.9080  -54.8359 C   0  0  0  0  0
   12.9156   -3.8408  -54.8844 C   0  0  0  0  0
   13.4803   -4.8559  -55.8654 C   0  0  0  0  0
    8.7078    1.3291  -55.7463 N   0  0  0  0  0
    8.7699   -2.3465  -54.8275 N   0  0  0  0  0
    9.2253   -0.5399  -57.0489 O   0  0  0  0  0
   13.2890   -4.4186  -57.1763 O   0  0  0  0  0
  1  2  1  0  0  0
  2  3  1  0  0  0
  3  4  1  0  0  0
  4  5  1  0  0  0
  5  6  1  0  0  0
  6  7  1  0  0  0
  6  1  1  0  0  0
  7  8  1  0  0  0
  8  9  1  0  0  0
  8 10  1  0  0  0
  8 25  1  0  0  0
  9  2  1  0  0  0
 10  4  1  0  0  0
 11 12  1  0  0  0
 12 26  1  0  0  0
 14 15  1  0  0  0
 16 17  1  0  0  0
 18 19  1  0  0  0
 18 13  1  0  0  0
 20 26  1  0  0  0
 20 21  1  0  0  0
 21 22  1  0  0  0
 22 23  1  0  0  0
 23 24  1  0  0  0
 24 28  1  0  0  0
 25 11  1  0  0  0
 26 13  1  0  0  0
 11 27  2  0  0  0
 13 14  2  0  0  0
 15 16  2  0  0  0
 17 18  2  0  0  0
 19 12  2  0  0  0
M  END
> <rmsd>
0.746378422

$$$$
CHEMBL2152808_5ZTY


 30 33  0  0  0  0  0  0  0  0999 V2000
    6.8973    2.8304  -59.0464 C   0  0  0  0  0
    8.2616    2.4239  -58.5069 C   0  0  0  0  0
    8.4975    0.9618  -58.8804 C   0  0  0  0  0
    9.4083    3.2885  -59.0810 C   0  0  0  0  0
    9.0510    4.7751  -58.9265 C   0  0  0  0  0
    9.1400    5.0118  -57.4172 C   0  0  0  0  0
    9.5568    3.6460  -56.8946 C   0  0  0  0  0
   10.2352    3.7208  -55.5370 C   0  0  0  0  0
   10.4472    3.1541  -57.9964 C   0  0  0  0  0
    8.3435    2.7093  -56.9850 C   0  0  0  0  0
    7.6406    1.1053  -55.1587 C   0  0  0  0  0
    7.8921   -0.1410  -54.3959 C   0  0  0  0  0
    9.0107   -0.9136  -54.7277 C   0  0  0  0  0
   10.4838   -2.8068  -54.4998 C   0  0  0  0  0
   10.1190   -3.7831  -55.6075 C   0  0  0  0  0
   11.3483   -4.5468  -56.0645 C   0  0  0  0  0
   12.2307   -3.6627  -56.9259 C   0  0  0  0  0
    8.5006   -2.5199  -53.0547 C   0  0  0  0  0
    8.7971   -3.7132  -52.3725 C   0  0  0  0  0
    7.9761   -4.1641  -51.3371 C   0  0  0  0  0
    6.8489   -3.4287  -50.9677 C   0  0  0  0  0
    6.5395   -2.2413  -51.6336 C   0  0  0  0  0
    7.3559   -1.7768  -52.6767 C   0  0  0  0  0
    7.0535   -0.5834  -53.3521 C   0  0  0  0  0
    8.5448    1.4955  -56.1957 N   0  0  0  0  0
    9.3009   -2.0682  -54.0704 N   0  0  0  0  0
    6.6375    1.8263  -54.9042 O   0  0  0  0  0
   13.3568   -4.3798  -57.3263 O   0  0  0  0  0
    6.0349    0.0843  -53.0200 O   0  0  0  0  0
    8.2748   -5.3155  -50.6895 F   0  0  0  0  0
  1  2  1  0  0  0
  2  3  1  0  0  0
  4  2  1  0  0  0
  4  5  1  0  0  0
  5  6  1  0  0  0
  6  7  1  0  0  0
  7  8  1  0  0  0
  7  9  1  0  0  0
  7 10  1  0  0  0
  9  4  1  0  0  0
 10 25  1  0  0  0
 10  2  1  0  0  0
 11 12  1  0  0  0
 13 26  1  0  0  0
 14 26  1  0  0  0
 14 15  1  0  0  0
 15 16  1  0  0  0
 16 17  1  0  0  0
 17 28  1  0  0  0
 19 20  1  0  0  0
 20 30  1  0  0  0
 21 22  1  0  0  0
 23 24  1  0  0  0
 23 18  1  0  0  0
 24 12  1  0  0  0
 25 11  1  0  0  0
 26 18  1  0  0  0
 11 27  2  0  0  0
 12 13  2  0  0  0
 18 19  2  0  0  0
 20 21  2  0  0  0
 22 23  2  0  0  0
 24 29  2  0  0  0
M  END
> <rmsd>
0.604602575

$$$$
