CHEMBL120669_5XRA


 29 32  0  0  0  0  0  0  0  0999 V2000
  -41.3079 -160.5501  304.2696 C   0  0  0  0  0
  -42.2650 -161.5228  304.9589 C   0  0  0  0  0
  -42.0412 -160.1308  305.5300 C   0  0  0  0  0
  -41.7045 -162.6234  305.8145 C   0  0  0  0  0
  -42.0548 -162.7185  307.1648 C   0  0  0  0  0
  -41.5691 -163.7641  307.9525 C   0  0  0  0  0
  -40.7635 -164.7726  307.3789 C   0  0  0  0  0
  -40.2519 -165.9077  308.2472 C   0  0  0  0  0
  -41.0189 -166.0302  309.5739 C   0  0  0  0  0
  -41.2608 -164.6674  310.2422 C   0  0  0  0  0
  -39.9549 -164.0416  310.7153 C   0  0  0  0  0
  -42.1800 -164.8326  311.4388 C   0  0  0  0  0
  -40.3423 -167.0547  310.4993 C   0  0  0  0  0
  -39.8797 -168.2892  309.7640 C   0  0  0  0  0
  -39.8601 -168.3809  308.4245 C   0  0  0  0  0
  -40.3565 -167.2638  307.5446 C   0  0  0  0  0
  -39.4051 -169.6492  307.7915 C   0  0  0  0  0
  -40.3751 -164.6441  306.0270 C   0  0  0  0  0
  -40.8623 -163.5880  305.2538 C   0  0  0  0  0
  -43.6687 -161.6914  304.3936 C   0  0  0  0  0
  -43.6821 -162.7644  303.3170 C   0  0  0  0  0
  -45.0928 -162.9750  302.7990 C   0  0  0  0  0
  -45.9125 -163.7584  303.8069 C   0  0  0  0  0
  -47.3172 -163.9493  303.2758 C   0  0  0  0  0
  -48.1350 -164.7294  304.2831 C   0  0  0  0  0
  -41.8924 -163.7882  309.3137 O   0  0  0  0  0
  -39.5023 -165.5529  305.4400 O   0  0  0  0  0
  -41.8697 -159.6411  302.8414 Cl  0  0  0  0  0
  -39.5498 -160.6648  304.5517 Cl  0  0  0  0  0
  1  2  1  0  0  0
  1 28  1  0  0  0
  1 29  1  0  0  0
  2  3  1  0  0  0
  2  4  1  0  0  0
  2 20  1  0  0  0
  3  1  1  0  0  0
  5  6  1  0  0  0
  6 26  1  0  0  0
  7 18  1  0  0  0
  8  7  1  0  0  0
  8  9  1  0  0  0
  8 16  1  0  0  0
  9 10  1  0  0  0
  9 13  1  0  0  0
 10 26  1  0  0  0
 10 11  1  0  0  0
 10 12  1  0  0  0
 13 14  1  0  0  0
 16 15  1  0  0  0
 17 15  1  0  0  0
 18 27  1  0  0  0
 19  4  1  0  0  0
 20 21  1  0  0  0
 21 22  1  0  0  0
 22 23  1  0  0  0
 23 24  1  0  0  0
 24 25  1  0  0  0
  4  5  2  0  0  0
  6  7  2  0  0  0
 14 15  2  0  0  0
 18 19  2  0  0  0
M  END
> <rmsd>
0.642043412

$$$$
CHEMBL56288_7FEE


 25 26  0  0  0  0  0  0  0  0999 V2000
  -48.0370 -164.8771  303.4251 C   0  0  0  0  0
  -46.8882 -163.9743  303.0291 C   0  0  0  0  0
  -46.4370 -163.1720  304.2350 C   0  0  0  0  0
  -45.2786 -162.2638  303.8645 C   0  0  0  0  0
  -43.9980 -163.0691  303.7265 C   0  0  0  0  0
  -42.8221 -162.1561  303.3881 C   0  0  0  0  0
  -42.1182 -161.5683  304.6199 C   0  0  0  0  0
  -40.9140 -160.7816  304.1328 C   0  0  0  0  0
  -43.0456 -160.5721  305.3107 C   0  0  0  0  0
  -41.6440 -162.6705  305.5544 C   0  0  0  0  0
  -42.0822 -162.7473  306.8846 C   0  0  0  0  0
  -41.6492 -163.7718  307.7287 C   0  0  0  0  0
  -40.7548 -164.7559  307.2539 C   0  0  0  0  0
  -40.2890 -165.8488  308.1443 C   0  0  0  0  0
  -39.9062 -165.5764  309.4673 C   0  0  0  0  0
  -39.4681 -166.6051  310.3058 C   0  0  0  0  0
  -39.0663 -166.3031  311.7040 C   0  0  0  0  0
  -39.4080 -167.9170  309.8294 C   0  0  0  0  0
  -39.7862 -168.2000  308.5147 C   0  0  0  0  0
  -39.7224 -169.5948  308.0068 C   0  0  0  0  0
  -40.2247 -167.1709  307.6767 C   0  0  0  0  0
  -40.3134 -164.6801  305.9149 C   0  0  0  0  0
  -40.7581 -163.6503  305.0835 C   0  0  0  0  0
  -42.1341 -163.8107  309.0312 O   0  0  0  0  0
  -39.4163 -165.6097  305.4010 O   0  0  0  0  0
  1  2  1  0  0  0
  2  3  1  0  0  0
  3  4  1  0  0  0
  4  5  1  0  0  0
  5  6  1  0  0  0
  6  7  1  0  0  0
  7  8  1  0  0  0
  7  9  1  0  0  0
  7 10  1  0  0  0
 11 12  1  0  0  0
 12 24  1  0  0  0
 13 14  1  0  0  0
 13 22  1  0  0  0
 15 16  1  0  0  0
 17 16  1  0  0  0
 18 19  1  0  0  0
 20 19  1  0  0  0
 21 14  1  0  0  0
 22 25  1  0  0  0
 23 10  1  0  0  0
 10 11  2  0  0  0
 12 13  2  0  0  0
 14 15  2  0  0  0
 16 18  2  0  0  0
 19 21  2  0  0  0
 22 23  2  0  0  0
M  END
> <rmsd>
0.645316362

$$$$
CHEMBL600602_5XRA


 27 29  0  0  0  0  0  0  0  0999 V2000
  -47.8673 -164.9224  303.2132 C   0  0  0  0  0
  -47.9854 -163.4268  303.4391 C   0  0  0  0  0
  -46.8229 -162.9236  304.2762 C   0  0  0  0  0
  -45.5611 -162.8457  303.4377 C   0  0  0  0  0
  -44.4157 -162.3581  304.2978 C   0  0  0  0  0
  -43.1445 -162.2938  303.4614 C   0  0  0  0  0
  -41.9043 -161.8461  304.2456 C   0  0  0  0  0
  -40.8003 -161.6184  303.2214 C   0  0  0  0  0
  -42.1553 -160.5029  304.9205 C   0  0  0  0  0
  -41.5037 -162.8906  305.2803 C   0  0  0  0  0
  -40.3289 -163.6472  305.1446 C   0  0  0  0  0
  -39.9766 -164.6145  306.0883 C   0  0  0  0  0
  -40.8227 -164.8728  307.1889 C   0  0  0  0  0
  -41.9657 -164.0627  307.3677 C   0  0  0  0  0
  -42.3055 -163.1047  306.4113 C   0  0  0  0  0
  -42.4059 -164.9931  309.6280 C   0  0  0  0  0
  -43.6681 -165.3832  310.3749 C   0  0  0  0  0
  -41.5287 -164.1616  310.5562 C   0  0  0  0  0
  -41.6765 -166.2535  309.1394 C   0  0  0  0  0
  -41.1899 -167.1684  310.2628 C   0  0  0  0  0
  -40.6507 -168.4842  309.6878 C   0  0  0  0  0
  -39.9246 -168.3348  308.3675 C   0  0  0  0  0
  -39.3184 -169.5445  307.7469 C   0  0  0  0  0
  -39.8950 -167.1763  307.6886 C   0  0  0  0  0
  -40.4759 -165.9028  308.2502 C   0  0  0  0  0
  -38.7793 -165.3003  305.9214 O   0  0  0  0  0
  -42.7788 -164.2022  308.5000 O   0  0  0  0  0
  1  2  1  0  0  0
  2  3  1  0  0  0
  3  4  1  0  0  0
  4  5  1  0  0  0
  5  6  1  0  0  0
  6  7  1  0  0  0
  7  8  1  0  0  0
  7  9  1  0  0  0
  7 10  1  0  0  0
 11 12  1  0  0  0
 12 26  1  0  0  0
 13 14  1  0  0  0
 14 27  1  0  0  0
 15 10  1  0  0  0
 16 27  1  0  0  0
 16 17  1  0  0  0
 16 18  1  0  0  0
 19 16  1  0  0  0
 19 20  1  0  0  0
 20 21  1  0  0  0
 21 22  1  0  0  0
 23 22  1  0  0  0
 25 24  1  0  0  0
 25 19  1  0  0  0
 25 13  1  0  0  0
 10 11  2  0  0  0
 12 13  2  0  0  0
 14 15  2  0  0  0
 22 24  2  0  0  0
M  END
> <rmsd>
0.554873168

$$$$
