CHEMBL120669_5XRA


 29 32  0  0  0  0  0  0  0  0999 V2000
   24.6172   -4.4079   39.2945 C   0  0  0  0  0
   24.9942   -5.5495   40.2390 C   0  0  0  0  0
   25.9118   -4.3463   40.0834 C   0  0  0  0  0
   25.5612   -6.8186   39.6686 C   0  0  0  0  0
   26.8265   -7.2671   40.0598 C   0  0  0  0  0
   27.3390   -8.4675   39.5638 C   0  0  0  0  0
   26.5596   -9.2734   38.7046 C   0  0  0  0  0
   27.1281  -10.5803   38.1823 C   0  0  0  0  0
   28.3464  -11.0600   38.9880 C   0  0  0  0  0
   29.3313   -9.9219   39.2997 C   0  0  0  0  0
   30.0022   -9.4058   38.0331 C   0  0  0  0  0
   30.4068  -10.4131   40.2516 C   0  0  0  0  0
   29.0052  -12.2706   38.3066 C   0  0  0  0  0
   27.9975  -13.2618   37.7768 C   0  0  0  0  0
   26.6813  -13.0049   37.7096 C   0  0  0  0  0
   26.0975  -11.7119   38.2157 C   0  0  0  0  0
   25.7635  -14.0553   37.1895 C   0  0  0  0  0
   25.3029   -8.7912   38.2766 C   0  0  0  0  0
   24.8071   -7.5844   38.7748 C   0  0  0  0  0
   24.3475   -5.6026   41.6163 C   0  0  0  0  0
   23.0321   -6.3622   41.5564 C   0  0  0  0  0
   22.4201   -6.4683   42.9408 C   0  0  0  0  0
   23.1588   -7.5055   43.7652 C   0  0  0  0  0
   22.5395   -7.5891   45.1440 C   0  0  0  0  0
   23.2787   -8.6229   45.9666 C   0  0  0  0  0
   28.6341   -8.8497   39.9309 O   0  0  0  0  0
   24.5389   -9.4956   37.3533 O   0  0  0  0  0
   23.4480   -3.1764   39.8404 Cl  0  0  0  0  0
   24.9323   -4.5464   37.5437 Cl  0  0  0  0  0
  1  2  1  0  0  0
  1 28  1  0  0  0
  1 29  1  0  0  0
  2  3  1  0  0  0
  2  4  1  0  0  0
  2 20  1  0  0  0
  3  1  1  0  0  0
  5  6  1  0  0  0
  6 26  1  0  0  0
  7 18  1  0  0  0
  8  7  1  0  0  0
  8  9  1  0  0  0
  8 16  1  0  0  0
  9 10  1  0  0  0
  9 13  1  0  0  0
 10 26  1  0  0  0
 10 11  1  0  0  0
 10 12  1  0  0  0
 13 14  1  0  0  0
 16 15  1  0  0  0
 17 15  1  0  0  0
 18 27  1  0  0  0
 19  4  1  0  0  0
 20 21  1  0  0  0
 21 22  1  0  0  0
 22 23  1  0  0  0
 23 24  1  0  0  0
 24 25  1  0  0  0
  4  5  2  0  0  0
  6  7  2  0  0  0
 14 15  2  0  0  0
 18 19  2  0  0  0
M  END
> <rmsd>
0.693051875

$$$$
CHEMBL476325_5XRA


 29 32  0  0  0  0  0  0  0  0999 V2000
   23.1285   -7.6806   47.0915 C   0  0  0  0  0
   23.0194   -6.7248   45.9225 C   0  0  0  0  0
   23.0421   -7.5080   44.6272 C   0  0  0  0  0
   22.9367   -6.5518   43.4588 C   0  0  0  0  0
   22.9758   -7.3351   42.1625 C   0  0  0  0  0
   22.9274   -6.3858   40.9704 C   0  0  0  0  0
   24.2955   -6.0454   40.3581 C   0  0  0  0  0
   24.9584   -7.3048   39.8077 C   0  0  0  0  0
   25.0285   -7.5574   38.4292 C   0  0  0  0  0
   25.6173   -8.7231   37.9350 C   0  0  0  0  0
   26.1277   -9.6917   38.8246 C   0  0  0  0  0
   26.1208   -9.4106   40.2070 C   0  0  0  0  0
   25.5211   -8.2442   40.6844 C   0  0  0  0  0
   27.5589  -11.3635   40.7218 C   0  0  0  0  0
   28.9725  -10.8371   40.5080 C   0  0  0  0  0
   27.5873  -12.3876   41.8419 C   0  0  0  0  0
   26.9994  -12.0004   39.4396 C   0  0  0  0  0
   27.8364  -13.1830   38.9259 C   0  0  0  0  0
   27.4270  -13.6292   37.5431 C   0  0  0  0  0
   26.5857  -12.9289   36.7650 C   0  0  0  0  0
   26.2263  -13.4626   35.4225 C   0  0  0  0  0
   25.9362  -11.6559   37.2414 C   0  0  0  0  0
   26.7756  -10.9691   38.3216 C   0  0  0  0  0
   25.9473   -3.8913   40.5544 C   0  0  0  0  0
   25.6645   -4.2255   39.1139 C   0  0  0  0  0
   25.6941   -8.9001   36.5584 O   0  0  0  0  0
   26.7128  -10.2878   41.1225 O   0  0  0  0  0
   25.3838   -5.2560   41.6168 S   0  0  0  0  0
   23.9645   -4.8216   39.0375 S   0  0  0  0  0
  1  2  1  0  0  0
  2  3  1  0  0  0
  3  4  1  0  0  0
  4  5  1  0  0  0
  5  6  1  0  0  0
  6  7  1  0  0  0
  7  8  1  0  0  0
  7 28  1  0  0  0
  7 29  1  0  0  0
  9 10  1  0  0  0
 10 26  1  0  0  0
 11 12  1  0  0  0
 12 27  1  0  0  0
 13  8  1  0  0  0
 14 27  1  0  0  0
 14 15  1  0  0  0
 14 16  1  0  0  0
 17 14  1  0  0  0
 17 18  1  0  0  0
 18 19  1  0  0  0
 21 20  1  0  0  0
 22 20  1  0  0  0
 23 22  1  0  0  0
 23 17  1  0  0  0
 23 11  1  0  0  0
 24 28  1  0  0  0
 24 25  1  0  0  0
 25 29  1  0  0  0
  8  9  2  0  0  0
 10 11  2  0  0  0
 12 13  2  0  0  0
 19 20  2  0  0  0
M  END
> <rmsd>
0.713644087

$$$$
CHEMBL232410_7FEE


 24 25  0  0  0  0  0  0  0  0999 V2000
   22.5930   -8.4745   46.0137 C   0  0  0  0  0
   23.0223   -7.0866   45.5880 C   0  0  0  0  0
   23.5027   -7.1259   44.1531 C   0  0  0  0  0
   23.9316   -5.7353   43.7246 C   0  0  0  0  0
   24.4098   -5.7530   42.2847 C   0  0  0  0  0
   23.2207   -5.8486   41.3312 C   0  0  0  0  0
   23.6344   -5.9830   39.8573 C   0  0  0  0  0
   22.3648   -5.8956   39.0295 C   0  0  0  0  0
   24.5220   -4.8053   39.4707 C   0  0  0  0  0
   24.3315   -7.2970   39.5403 C   0  0  0  0  0
   24.4505   -8.3203   40.4966 C   0  0  0  0  0
   25.0754   -9.5271   40.1777 C   0  0  0  0  0
   25.5897   -9.7402   38.8935 C   0  0  0  0  0
   26.2458  -11.0301   38.5788 C   0  0  0  0  0
   25.6469  -11.9401   37.6773 C   0  0  0  0  0
   24.3309  -11.6584   37.0320 C   0  0  0  0  0
   26.2736  -13.1554   37.3900 C   0  0  0  0  0
   27.4915  -13.4809   37.9865 C   0  0  0  0  0
   28.0901  -12.5921   38.8789 C   0  0  0  0  0
   27.4776  -11.3731   39.1820 C   0  0  0  0  0
   28.1736  -10.4530   40.1289 C   0  0  0  0  0
   25.4739   -8.7262   37.9267 C   0  0  0  0  0
   24.8461   -7.5208   38.2514 C   0  0  0  0  0
   25.9862   -8.9024   36.6464 O   0  0  0  0  0
  1  2  1  0  0  0
  2  3  1  0  0  0
  3  4  1  0  0  0
  4  5  1  0  0  0
  5  6  1  0  0  0
  6  7  1  0  0  0
  7  8  1  0  0  0
  7  9  1  0  0  0
  7 10  1  0  0  0
 11 12  1  0  0  0
 13 14  1  0  0  0
 13 22  1  0  0  0
 15 17  1  0  0  0
 16 15  1  0  0  0
 18 19  1  0  0  0
 20 14  1  0  0  0
 21 20  1  0  0  0
 22 24  1  0  0  0
 23 10  1  0  0  0
 10 11  2  0  0  0
 12 13  2  0  0  0
 14 15  2  0  0  0
 17 18  2  0  0  0
 19 20  2  0  0  0
 22 23  2  0  0  0
M  END
> <rmsd>
0.756344974

$$$$
CHEMBL56288_7FEE


 25 26  0  0  0  0  0  0  0  0999 V2000
   22.4551   -8.4677   45.8834 C   0  0  0  0  0
   22.3285   -7.4920   44.7329 C   0  0  0  0  0
   23.7063   -6.9947   44.3380 C   0  0  0  0  0
   23.6061   -6.0197   43.1789 C   0  0  0  0  0
   23.3329   -6.7642   41.8833 C   0  0  0  0  0
   23.2657   -5.7921   40.7080 C   0  0  0  0  0
   24.6281   -5.5083   40.0586 C   0  0  0  0  0
   24.3879   -4.6237   38.8478 C   0  0  0  0  0
   25.4969   -4.7071   41.0245 C   0  0  0  0  0
   25.2947   -6.7977   39.6048 C   0  0  0  0  0
   26.5511   -7.1879   40.0912 C   0  0  0  0  0
   27.1465   -8.3807   39.6762 C   0  0  0  0  0
   26.4891   -9.2212   38.7515 C   0  0  0  0  0
   27.1148  -10.4912   38.3045 C   0  0  0  0  0
   28.4787  -10.5368   37.9750 C   0  0  0  0  0
   29.0681  -11.7324   37.5547 C   0  0  0  0  0
   30.5128  -11.7668   37.2095 C   0  0  0  0  0
   28.2989  -12.8946   37.4591 C   0  0  0  0  0
   26.9406  -12.8612   37.7841 C   0  0  0  0  0
   26.1215  -14.0966   37.6825 C   0  0  0  0  0
   26.3519  -11.6655   38.2049 C   0  0  0  0  0
   25.2241   -8.8298   38.2614 C   0  0  0  0  0
   24.6417   -7.6349   38.6887 C   0  0  0  0  0
   28.3831   -8.7278   40.2088 O   0  0  0  0  0
   24.5416   -9.6081   37.3333 O   0  0  0  0  0
  1  2  1  0  0  0
  2  3  1  0  0  0
  3  4  1  0  0  0
  4  5  1  0  0  0
  5  6  1  0  0  0
  6  7  1  0  0  0
  7  8  1  0  0  0
  7  9  1  0  0  0
  7 10  1  0  0  0
 11 12  1  0  0  0
 12 24  1  0  0  0
 13 14  1  0  0  0
 13 22  1  0  0  0
 15 16  1  0  0  0
 17 16  1  0  0  0
 18 19  1  0  0  0
 20 19  1  0  0  0
 21 14  1  0  0  0
 22 25  1  0  0  0
 23 10  1  0  0  0
 10 11  2  0  0  0
 12 13  2  0  0  0
 14 15  2  0  0  0
 16 18  2  0  0  0
 19 21  2  0  0  0
 22 23  2  0  0  0
M  END
> <rmsd>
0.652467251

$$$$
CHEMBL108392_5XRA


 30 33  0  0  0  0  0  0  0  0999 V2000
   21.7823   -8.6349   45.7812 C   0  0  0  0  0
   22.8426   -7.6406   45.3601 C   0  0  0  0  0
   22.9183   -7.5886   43.8493 C   0  0  0  0  0
   23.9709   -6.5844   43.4327 C   0  0  0  0  0
   24.0507   -6.5352   41.9230 C   0  0  0  0  0
   25.1020   -5.5164   41.5067 C   0  0  0  0  0
   25.2661   -5.4195   39.9792 C   0  0  0  0  0
   25.7548   -6.7589   39.4446 C   0  0  0  0  0
   25.0471   -7.4701   38.4645 C   0  0  0  0  0
   25.4989   -8.7059   37.9978 C   0  0  0  0  0
   26.6713   -9.2803   38.5351 C   0  0  0  0  0
   27.4228   -8.5351   39.4716 C   0  0  0  0  0
   26.9525   -7.3041   39.9302 C   0  0  0  0  0
   29.2905  -10.1722   39.4242 C   0  0  0  0  0
   30.2687  -10.7211   40.4498 C   0  0  0  0  0
   30.0962   -9.7768   38.1958 C   0  0  0  0  0
   28.2343  -11.2263   39.0458 C   0  0  0  0  0
   27.5299  -11.7741   40.3062 C   0  0  0  0  0
   26.1766  -12.3836   40.0530 C   0  0  0  0  0
   25.5422  -12.3078   38.8771 C   0  0  0  0  0
   24.2109  -12.9568   38.7291 C   0  0  0  0  0
   26.1714  -11.6604   37.6769 C   0  0  0  0  0
   27.2260  -10.6137   38.0514 C   0  0  0  0  0
   25.8003   -2.7714   40.4771 C   0  0  0  0  0
   24.4868   -2.3629   39.8395 C   0  0  0  0  0
   23.4181   -3.3895   40.1579 C   0  0  0  0  0
   24.7754   -9.3406   36.9955 O   0  0  0  0  0
   28.6464   -9.0149   39.9607 O   0  0  0  0  0
   26.5484   -4.1673   39.5739 S   0  0  0  0  0
   23.6764   -4.9080   39.1836 S   0  0  0  0  0
  1  2  1  0  0  0
  2  3  1  0  0  0
  3  4  1  0  0  0
  4  5  1  0  0  0
  5  6  1  0  0  0
  6  7  1  0  0  0
  7  8  1  0  0  0
  7 29  1  0  0  0
  7 30  1  0  0  0
  9 10  1  0  0  0
 10 27  1  0  0  0
 11 12  1  0  0  0
 12 28  1  0  0  0
 13  8  1  0  0  0
 14 28  1  0  0  0
 14 15  1  0  0  0
 14 16  1  0  0  0
 17 14  1  0  0  0
 17 18  1  0  0  0
 18 19  1  0  0  0
 21 20  1  0  0  0
 22 20  1  0  0  0
 23 22  1  0  0  0
 23 17  1  0  0  0
 23 11  1  0  0  0
 24 29  1  0  0  0
 24 25  1  0  0  0
 25 26  1  0  0  0
 26 30  1  0  0  0
  8  9  2  0  0  0
 10 11  2  0  0  0
 12 13  2  0  0  0
 19 20  2  0  0  0
M  END
> <rmsd>
0.627980351

$$$$
CHEMBL3809355_7FEE


 23 24  0  0  0  0  0  0  0  0999 V2000
   22.1209   -6.2373   46.7325 C   0  0  0  0  0
   22.7251   -7.3369   45.8796 C   0  0  0  0  0
   23.4359   -6.7444   44.6761 C   0  0  0  0  0
   22.4266   -6.2884   43.6347 C   0  0  0  0  0
   23.1387   -5.6993   42.4309 C   0  0  0  0  0
   23.7585   -6.8090   41.5851 C   0  0  0  0  0
   24.5216   -6.2878   40.3606 C   0  0  0  0  0
   23.5626   -5.5035   39.4664 C   0  0  0  0  0
   25.6332   -5.3421   40.7981 C   0  0  0  0  0
   25.1387   -7.4682   39.6309 C   0  0  0  0  0
   24.8138   -7.7670   38.2972 C   0  0  0  0  0
   25.3897   -8.8586   37.6436 C   0  0  0  0  0
   26.3082   -9.6812   38.3160 C   0  0  0  0  0
   26.6408   -9.3890   39.6543 C   0  0  0  0  0
   26.0582   -8.2945   40.2971 C   0  0  0  0  0
   26.9177  -10.8453   37.5847 C   0  0  0  0  0
   28.4208  -10.6431   37.3267 C   0  0  0  0  0
   29.2791  -11.6011   38.1508 C   0  0  0  0  0
   28.9185  -13.0642   37.8657 C   0  0  0  0  0
   27.4166  -13.3034   37.6492 C   0  0  0  0  0
   26.5645  -12.1856   38.2419 C   0  0  0  0  0
   27.5448  -10.1783   40.3553 O   0  0  0  0  0
   25.0417   -9.1179   36.3228 O   0  0  0  0  0
  1  2  1  0  0  0
  2  3  1  0  0  0
  3  4  1  0  0  0
  4  5  1  0  0  0
  5  6  1  0  0  0
  6  7  1  0  0  0
  7  8  1  0  0  0
  7  9  1  0  0  0
  7 10  1  0  0  0
 11 12  1  0  0  0
 12 23  1  0  0  0
 13 14  1  0  0  0
 14 22  1  0  0  0
 15 10  1  0  0  0
 16 13  1  0  0  0
 16 17  1  0  0  0
 17 18  1  0  0  0
 18 19  1  0  0  0
 19 20  1  0  0  0
 20 21  1  0  0  0
 21 16  1  0  0  0
 10 11  2  0  0  0
 12 13  2  0  0  0
 14 15  2  0  0  0
M  END
> <rmsd>
0.672463775

$$$$
CHEMBL234897_7FEE


 23 24  0  0  0  0  0  0  0  0999 V2000
   22.5538   -8.4717   46.0039 C   0  0  0  0  0
   23.0072   -7.0889   45.5863 C   0  0  0  0  0
   23.4937   -7.1298   44.1535 C   0  0  0  0  0
   23.9466   -5.7443   43.7331 C   0  0  0  0  0
   24.4311   -5.7632   42.2954 C   0  0  0  0  0
   23.2453   -5.8364   41.3361 C   0  0  0  0  0
   23.6634   -5.9697   39.8632 C   0  0  0  0  0
   22.3990   -5.8596   39.0305 C   0  0  0  0  0
   24.5700   -4.8033   39.4864 C   0  0  0  0  0
   24.3429   -7.2922   39.5430 C   0  0  0  0  0
   24.4419   -8.3216   40.4930 C   0  0  0  0  0
   25.0530   -9.5340   40.1706 C   0  0  0  0  0
   25.5734   -9.7561   38.8879 C   0  0  0  0  0
   26.2441  -11.0448   38.5838 C   0  0  0  0  0
   27.4701  -11.0331   37.8991 C   0  0  0  0  0
   28.1428  -12.2236   37.6159 C   0  0  0  0  0
   27.5980  -13.4443   38.0156 C   0  0  0  0  0
   26.3796  -13.4745   38.6963 C   0  0  0  0  0
   25.6999  -12.2869   38.9855 C   0  0  0  0  0
   25.4687   -8.7311   37.9251 C   0  0  0  0  0
   24.8571   -7.5187   38.2555 C   0  0  0  0  0
   24.4421  -12.3624   39.6510 N   0  0  0  0  0
   25.9500   -8.9093   36.6330 O   0  0  0  0  0
  1  2  1  0  0  0
  2  3  1  0  0  0
  3  4  1  0  0  0
  4  5  1  0  0  0
  5  6  1  0  0  0
  6  7  1  0  0  0
  7  8  1  0  0  0
  7  9  1  0  0  0
  7 10  1  0  0  0
 11 12  1  0  0  0
 13 14  1  0  0  0
 13 20  1  0  0  0
 15 16  1  0  0  0
 17 18  1  0  0  0
 19 22  1  0  0  0
 19 14  1  0  0  0
 20 23  1  0  0  0
 21 10  1  0  0  0
 10 11  2  0  0  0
 12 13  2  0  0  0
 14 15  2  0  0  0
 16 17  2  0  0  0
 18 19  2  0  0  0
 20 21  2  0  0  0
M  END
> <rmsd>
0.736302316

$$$$
CHEMBL600602_5XRA


 27 29  0  0  0  0  0  0  0  0999 V2000
   22.2165   -8.5173   45.6526 C   0  0  0  0  0
   22.8339   -7.1440   45.8390 C   0  0  0  0  0
   23.8198   -6.8501   44.7223 C   0  0  0  0  0
   23.0826   -6.5064   43.4419 C   0  0  0  0  0
   24.0857   -6.2342   42.3423 C   0  0  0  0  0
   23.3472   -5.9040   41.0518 C   0  0  0  0  0
   24.2702   -5.6465   39.8538 C   0  0  0  0  0
   23.3888   -5.1134   38.7318 C   0  0  0  0  0
   25.2732   -4.5461   40.1791 C   0  0  0  0  0
   24.9982   -6.9194   39.4394 C   0  0  0  0  0
   24.7080   -7.5723   38.2309 C   0  0  0  0  0
   25.3676   -8.7477   37.8653 C   0  0  0  0  0
   26.3240   -9.3226   38.7306 C   0  0  0  0  0
   26.6714   -8.6290   39.9108 C   0  0  0  0  0
   25.9976   -7.4586   40.2631 C   0  0  0  0  0
   28.5771  -10.1524   40.3753 C   0  0  0  0  0
   29.1417  -10.7715   41.6407 C   0  0  0  0  0
   29.7285   -9.5767   39.5598 C   0  0  0  0  0
   27.7940  -11.2083   39.5808 C   0  0  0  0  0
   28.6458  -12.3779   39.0884 C   0  0  0  0  0
   27.7573  -13.4698   38.4792 C   0  0  0  0  0
   26.5555  -12.9438   37.7231 C   0  0  0  0  0
   25.6544  -13.9190   37.0501 C   0  0  0  0  0
   26.2170  -11.6440   37.7225 C   0  0  0  0  0
   27.0795  -10.5905   38.3713 C   0  0  0  0  0
   25.0674   -9.3233   36.6365 O   0  0  0  0  0
   27.6917   -9.0972   40.7489 O   0  0  0  0  0
  1  2  1  0  0  0
  2  3  1  0  0  0
  3  4  1  0  0  0
  4  5  1  0  0  0
  5  6  1  0  0  0
  6  7  1  0  0  0
  7  8  1  0  0  0
  7  9  1  0  0  0
  7 10  1  0  0  0
 11 12  1  0  0  0
 12 26  1  0  0  0
 13 14  1  0  0  0
 14 27  1  0  0  0
 15 10  1  0  0  0
 16 27  1  0  0  0
 16 17  1  0  0  0
 16 18  1  0  0  0
 19 16  1  0  0  0
 19 20  1  0  0  0
 20 21  1  0  0  0
 21 22  1  0  0  0
 23 22  1  0  0  0
 25 24  1  0  0  0
 25 19  1  0  0  0
 25 13  1  0  0  0
 10 11  2  0  0  0
 12 13  2  0  0  0
 14 15  2  0  0  0
 22 24  2  0  0  0
M  END
> <rmsd>
0.182619929

$$$$
CHEMBL5176902_7FEE


 23 24  0  0  0  0  0  0  0  0999 V2000
   22.8728   -5.0931   38.8701 C   0  0  0  0  0
   25.6541   -4.1038   39.6105 C   0  0  0  0  0
   25.0808   -7.0703   39.5637 C   0  0  0  0  0
   25.8187   -7.7522   40.5335 C   0  0  0  0  0
   26.3878   -8.9946   40.2431 C   0  0  0  0  0
   26.2294   -9.5635   38.9671 C   0  0  0  0  0
   25.4953   -8.8628   37.9864 C   0  0  0  0  0
   24.9306   -7.6212   38.2895 C   0  0  0  0  0
   26.8508  -10.9015   38.6798 C   0  0  0  0  0
   27.9261  -10.8088   37.5959 C   0  0  0  0  0
   28.6474  -12.1502   37.4060 C   0  0  0  0  0
   27.7723  -13.3728   37.7163 C   0  0  0  0  0
   26.2977  -13.0840   37.4525 C   0  0  0  0  0
   25.7847  -11.9641   38.3654 C   0  0  0  0  0
   23.8678   -5.3345   41.7449 C   0  0  0  0  0
   22.8277   -6.4004   42.0375 C   0  0  0  0  0
   22.4916   -6.4188   43.5171 C   0  0  0  0  0
   23.6111   -7.0814   44.3040 C   0  0  0  0  0
   23.2765   -7.1053   45.7845 C   0  0  0  0  0
   22.2406   -8.1746   46.0763 C   0  0  0  0  0
   24.3676   -5.4142   39.9453 Si  0  0  0  0  0
   25.3235   -9.3897   36.7116 O   0  0  0  0  0
   27.1111   -9.6563   41.2288 O   0  0  0  0  0
  1 21  1  0  0  0
  4  5  1  0  0  0
  5 23  1  0  0  0
  6  7  1  0  0  0
  7 22  1  0  0  0
  8  3  1  0  0  0
  9  6  1  0  0  0
  9 10  1  0  0  0
 10 11  1  0  0  0
 11 12  1  0  0  0
 12 13  1  0  0  0
 13 14  1  0  0  0
 14  9  1  0  0  0
 15 16  1  0  0  0
 16 17  1  0  0  0
 17 18  1  0  0  0
 18 19  1  0  0  0
 19 20  1  0  0  0
 21  2  1  0  0  0
 21  3  1  0  0  0
 21 15  1  0  0  0
  3  4  2  0  0  0
  5  6  2  0  0  0
  7  8  2  0  0  0
M  END
> <rmsd>
0.407128811

$$$$
CHEMBL391134_7FEE


 24 25  0  0  0  0  0  0  0  0999 V2000
   22.0391   -6.2578   46.3846 C   0  0  0  0  0
   22.5587   -7.5609   45.8070 C   0  0  0  0  0
   23.6172   -7.2892   44.7531 C   0  0  0  0  0
   22.9733   -6.8055   43.4676 C   0  0  0  0  0
   24.0479   -6.5368   42.4370 C   0  0  0  0  0
   23.4019   -6.0588   41.1433 C   0  0  0  0  0
   24.4016   -5.7794   40.0138 C   0  0  0  0  0
   25.4552   -4.7770   40.4694 C   0  0  0  0  0
   23.6181   -5.1067   38.8943 C   0  0  0  0  0
   25.0656   -7.0658   39.5386 C   0  0  0  0  0
   25.9950   -7.7249   40.3598 C   0  0  0  0  0
   26.6067   -8.9077   39.9418 C   0  0  0  0  0
   26.3020   -9.4677   38.6939 C   0  0  0  0  0
   26.9879  -10.7093   38.2616 C   0  0  0  0  0
   27.6113  -10.7263   37.0051 C   0  0  0  0  0
   28.2901  -11.8594   36.5589 C   0  0  0  0  0
   28.3563  -12.9938   37.3657 C   0  0  0  0  0
   27.7432  -13.0048   38.6203 C   0  0  0  0  0
   27.8363  -14.2469   39.4418 C   0  0  0  0  0
   27.0524  -11.8645   39.0800 C   0  0  0  0  0
   26.3577  -11.9052   40.4072 C   0  0  0  0  0
   25.3730   -8.8132   37.8613 C   0  0  0  0  0
   24.7652   -7.6287   38.2858 C   0  0  0  0  0
   25.0336   -9.3368   36.6189 O   0  0  0  0  0
  1  2  1  0  0  0
  2  3  1  0  0  0
  3  4  1  0  0  0
  4  5  1  0  0  0
  5  6  1  0  0  0
  6  7  1  0  0  0
  7  8  1  0  0  0
  7  9  1  0  0  0
  7 10  1  0  0  0
 11 12  1  0  0  0
 13 14  1  0  0  0
 13 22  1  0  0  0
 15 16  1  0  0  0
 17 18  1  0  0  0
 19 18  1  0  0  0
 20 14  1  0  0  0
 21 20  1  0  0  0
 22 24  1  0  0  0
 23 10  1  0  0  0
 10 11  2  0  0  0
 12 13  2  0  0  0
 14 15  2  0  0  0
 16 17  2  0  0  0
 18 20  2  0  0  0
 22 23  2  0  0  0
M  END
> <rmsd>
0.440883964

$$$$
CHEMBL303479_5XRA


 28 31  0  0  0  0  0  0  0  0999 V2000
   26.5649   -9.2507   38.7533 C   0  0  0  0  0
   25.4060   -8.5999   38.2758 C   0  0  0  0  0
   24.9802   -7.3915   38.8539 C   0  0  0  0  0
   25.7104   -6.8242   39.9214 C   0  0  0  0  0
   26.9108   -7.4212   40.3182 C   0  0  0  0  0
   27.3476   -8.6093   39.7357 C   0  0  0  0  0
   29.2240  -10.1993   39.4308 C   0  0  0  0  0
   28.1702  -11.2178   38.9691 C   0  0  0  0  0
   27.0475  -10.5596   38.1502 C   0  0  0  0  0
   25.9084  -11.5756   37.9741 C   0  0  0  0  0
   26.3871  -12.9644   37.6185 C   0  0  0  0  0
   27.6712  -13.3364   37.7483 C   0  0  0  0  0
   28.7545  -12.3751   38.1556 C   0  0  0  0  0
   25.3798  -13.9870   37.2239 C   0  0  0  0  0
   29.9917   -9.6139   38.2505 C   0  0  0  0  0
   30.2128  -10.8661   40.3694 C   0  0  0  0  0
   25.3033   -5.5001   40.5421 C   0  0  0  0  0
   23.9134   -5.0164   40.1207 C   0  0  0  0  0
   23.6922   -5.2525   38.6364 C   0  0  0  0  0
   23.7089   -6.7504   38.3657 C   0  0  0  0  0
   25.4527   -5.4768   42.0684 C   0  0  0  0  0
   24.6501   -6.5704   42.7661 C   0  0  0  0  0
   23.2218   -6.1165   43.0140 C   0  0  0  0  0
   22.4211   -7.2289   43.6669 C   0  0  0  0  0
   22.7988   -7.3628   45.1303 C   0  0  0  0  0
   22.0146   -8.4998   45.7518 C   0  0  0  0  0
   28.5769   -9.1436   40.1386 O   0  0  0  0  0
   24.6795   -9.1428   37.2189 O   0  0  0  0  0
  2  3  1  0  0  0
  2 28  1  0  0  0
  4  5  1  0  0  0
  6 27  1  0  0  0
  6  1  1  0  0  0
  7 27  1  0  0  0
  7  8  1  0  0  0
  7 15  1  0  0  0
  7 16  1  0  0  0
  8  9  1  0  0  0
  8 13  1  0  0  0
  9 10  1  0  0  0
  9  1  1  0  0  0
 10 11  1  0  0  0
 13 12  1  0  0  0
 14 11  1  0  0  0
 17  4  1  0  0  0
 17 18  1  0  0  0
 17 21  1  0  0  0
 18 19  1  0  0  0
 19 20  1  0  0  0
 20  3  1  0  0  0
 21 22  1  0  0  0
 22 23  1  0  0  0
 23 24  1  0  0  0
 24 25  1  0  0  0
 25 26  1  0  0  0
  1  2  2  0  0  0
  3  4  2  0  0  0
  5  6  2  0  0  0
 11 12  2  0  0  0
M  END
> <rmsd>
0.707874835

$$$$
CHEMBL420173_5XRA


 30 32  0  0  0  0  0  0  0  0999 V2000
   22.7266   -8.1020   46.3399 C   0  0  0  0  0
   22.9149   -6.9773   45.3440 C   0  0  0  0  0
   22.8065   -7.5260   43.9373 C   0  0  0  0  0
   22.9980   -6.4020   42.9420 C   0  0  0  0  0
   22.9020   -6.9544   41.5338 C   0  0  0  0  0
   23.1371   -5.8512   40.5046 C   0  0  0  0  0
   24.6166   -5.6299   40.1570 C   0  0  0  0  0
   24.6808   -4.6001   39.0427 C   0  0  0  0  0
   25.3380   -5.0246   41.3582 C   0  0  0  0  0
   25.2628   -6.9199   39.6764 C   0  0  0  0  0
   24.7431   -7.5853   38.5570 C   0  0  0  0  0
   25.3027   -8.7815   38.1019 C   0  0  0  0  0
   26.4140   -9.3463   38.7743 C   0  0  0  0  0
   26.9452   -8.6682   39.8852 C   0  0  0  0  0
   26.3682   -7.4788   40.3330 C   0  0  0  0  0
   28.9144  -10.1914   40.0551 C   0  0  0  0  0
   29.3973  -11.0299   41.2278 C   0  0  0  0  0
   30.1182   -9.5177   39.4201 C   0  0  0  0  0
   28.2298  -11.0648   39.0208 C   0  0  0  0  0
   28.8278  -12.2741   38.6257 C   0  0  0  0  0
   28.2408  -13.0749   37.6468 C   0  0  0  0  0
   27.0490  -12.6769   37.0349 C   0  0  0  0  0
   26.4185  -13.5162   36.0032 C   0  0  0  0  0
   24.5815  -13.8693   34.4016 C   0  0  0  0  0
   26.4613  -11.4642   37.4076 C   0  0  0  0  0
   27.0389  -10.6408   38.3874 C   0  0  0  0  0
   24.7408   -9.3834   36.9825 O   0  0  0  0  0
   28.0455   -9.1827   40.5745 O   0  0  0  0  0
   26.9514  -14.6096   35.6656 O   0  0  0  0  0
   25.2294  -13.0972   35.4012 O   0  0  0  0  0
  1  2  1  0  0  0
  2  3  1  0  0  0
  3  4  1  0  0  0
  4  5  1  0  0  0
  5  6  1  0  0  0
  6  7  1  0  0  0
  7  8  1  0  0  0
  7  9  1  0  0  0
  7 10  1  0  0  0
 11 12  1  0  0  0
 12 27  1  0  0  0
 13 14  1  0  0  0
 14 28  1  0  0  0
 15 10  1  0  0  0
 16 28  1  0  0  0
 16 17  1  0  0  0
 16 18  1  0  0  0
 16 19  1  0  0  0
 20 21  1  0  0  0
 22 23  1  0  0  0
 22 25  1  0  0  0
 23 30  1  0  0  0
 24 30  1  0  0  0
 26 19  1  0  0  0
 26 13  1  0  0  0
 10 11  2  0  0  0
 12 13  2  0  0  0
 14 15  2  0  0  0
 19 20  2  0  0  0
 21 22  2  0  0  0
 23 29  2  0  0  0
 25 26  2  0  0  0
M  END
> <rmsd>
0.552289605

$$$$
CHEMBL5200844_5XRA


 27 29  0  0  0  0  0  0  0  0999 V2000
   30.3989  -10.1495   40.2269 C   0  0  0  0  0
   29.3415   -9.6688   39.2465 C   0  0  0  0  0
   30.0526   -8.8680   38.1661 C   0  0  0  0  0
   28.5968  -10.8552   38.6123 C   0  0  0  0  0
   27.4612  -10.3621   37.6817 C   0  0  0  0  0
   26.6378   -9.2346   38.2969 C   0  0  0  0  0
   27.1536   -8.5245   39.4068 C   0  0  0  0  0
   26.4088   -7.5023   39.9979 C   0  0  0  0  0
   25.1752   -7.1296   39.4655 C   0  0  0  0  0
   24.6840   -7.7776   38.3324 C   0  0  0  0  0
   25.4122   -8.8083   37.7332 C   0  0  0  0  0
   22.9331   -6.6128   41.4453 C   0  0  0  0  0
   23.6092   -7.5813   42.4059 C   0  0  0  0  0
   24.2750   -6.8491   43.5648 C   0  0  0  0  0
   23.2440   -6.2851   44.5302 C   0  0  0  0  0
   22.6306   -7.3977   45.3592 C   0  0  0  0  0
   21.6014   -6.8140   46.3035 C   0  0  0  0  0
   23.2505   -4.8321   38.9948 C   0  0  0  0  0
   25.2892   -4.6573   41.2359 C   0  0  0  0  0
   26.6060  -11.5201   37.2110 C   0  0  0  0  0
   26.5347  -12.6983   37.8494 C   0  0  0  0  0
   27.4288  -13.0324   39.0143 C   0  0  0  0  0
   28.0106  -11.7892   39.6774 C   0  0  0  0  0
   25.6664  -13.7680   37.2856 C   0  0  0  0  0
   24.9078   -9.3905   36.5763 O   0  0  0  0  0
   28.4158   -8.8266   39.9303 O   0  0  0  0  0
   24.1737   -5.8175   40.2853 Si  0  0  0  0  0
  1  2  1  0  0  0
  2  3  1  0  0  0
  2  4  1  0  0  0
  2 26  1  0  0  0
  4  5  1  0  0  0
  4 23  1  0  0  0
  5  6  1  0  0  0
  5 20  1  0  0  0
  7  8  1  0  0  0
  7 26  1  0  0  0
  9 10  1  0  0  0
 11 25  1  0  0  0
 11  6  1  0  0  0
 12 13  1  0  0  0
 13 14  1  0  0  0
 14 15  1  0  0  0
 15 16  1  0  0  0
 16 17  1  0  0  0
 22 21  1  0  0  0
 22 23  1  0  0  0
 24 21  1  0  0  0
 27  9  1  0  0  0
 27 12  1  0  0  0
 27 18  1  0  0  0
 27 19  1  0  0  0
  6  7  2  0  0  0
  8  9  2  0  0  0
 10 11  2  0  0  0
 20 21  2  0  0  0
M  END
> <rmsd>
0.499155939

$$$$
CHEMBL5183623_7FEE


 22 23  0  0  0  0  0  0  0  0999 V2000
   23.0285   -4.9663   38.9975 C   0  0  0  0  0
   25.8322   -4.2733   39.9578 C   0  0  0  0  0
   25.0670   -7.1643   39.5251 C   0  0  0  0  0
   24.9427   -7.5449   38.1877 C   0  0  0  0  0
   25.4377   -8.7781   37.7561 C   0  0  0  0  0
   26.0735   -9.6431   38.6647 C   0  0  0  0  0
   26.2089   -9.2455   40.0131 C   0  0  0  0  0
   25.7099   -8.0096   40.4315 C   0  0  0  0  0
   26.5939  -10.9654   38.1686 C   0  0  0  0  0
   25.9470  -12.1448   38.8750 C   0  0  0  0  0
   27.0732  -13.0857   39.2653 C   0  0  0  0  0
   28.3215  -12.5777   38.5729 C   0  0  0  0  0
   28.0909  -11.1011   38.3539 C   0  0  0  0  0
   23.8726   -5.6212   41.8562 C   0  0  0  0  0
   22.7504   -6.6361   41.9763 C   0  0  0  0  0
   22.3485   -6.8086   43.4291 C   0  0  0  0  0
   23.3824   -7.6446   44.1662 C   0  0  0  0  0
   22.9988   -7.7952   45.6273 C   0  0  0  0  0
   23.2828   -6.5112   46.3839 C   0  0  0  0  0
   24.4479   -5.5195   40.0805 Si  0  0  0  0  0
   26.8368  -10.0672   40.9420 O   0  0  0  0  0
   25.2943   -9.1355   36.4202 O   0  0  0  0  0
  1 20  1  0  0  0
  4  5  1  0  0  0
  5 22  1  0  0  0
  6  7  1  0  0  0
  7 21  1  0  0  0
  8  3  1  0  0  0
  9  6  1  0  0  0
  9 10  1  0  0  0
 10 11  1  0  0  0
 11 12  1  0  0  0
 12 13  1  0  0  0
 13  9  1  0  0  0
 14 15  1  0  0  0
 15 16  1  0  0  0
 16 17  1  0  0  0
 17 18  1  0  0  0
 18 19  1  0  0  0
 20  2  1  0  0  0
 20  3  1  0  0  0
 20 14  1  0  0  0
  3  4  2  0  0  0
  5  6  2  0  0  0
  7  8  2  0  0  0
M  END
> <rmsd>
0.472684801

$$$$
